[General]
network = Network
sim-time-limit = 77h
**.source.interArrivalTime = exponential(6min)
**.delay.delay = uniform(4min,28min)
**.delay1.delay = uniform(10min,28min)
**.delay2.delay = uniform(4min,16min)
**.allocate.resourceModuleName = "Network.resourcePool"
**.allocate1.resourceModuleName = "Network.resourcePool1"
**.allocate2.resourceModuleName = "Network.resourcePool2"
**.deallocate.resourceModuleName = "Network.resourcePool"
**.deallocate1.resourceModuleName = "Network.resourcePool1"
**.deallocate2.resourceModuleName = "Network.resourcePool2"
**.router.randomGateIndex = uniform(0, 1) > 0.2 ? 0 : 1
[Config Iteration]
**.resourcePool.amount = ${i=1..15}
**.resourcePool1.amount = ${j=1..(14-$i)}
**.resourcePool2.amount = ${15-($i+$j)}
